Version 4
SHEET 1 880 680
WIRE 16 -288 -176 -288
WIRE 16 -256 16 -288
WIRE -176 -240 -176 -288
WIRE -176 -112 -176 -160
WIRE -176 -112 -320 -112
WIRE -48 -112 -176 -112
WIRE -320 -64 -320 -112
WIRE -48 -64 -48 -112
WIRE -320 48 -320 16
WIRE -240 48 -320 48
WIRE -48 48 -48 16
WIRE -48 48 -128 48
WIRE -320 96 -320 48
WIRE -48 96 -48 48
WIRE -384 144 -528 144
WIRE 144 144 16 144
WIRE -528 208 -528 144
WIRE 144 208 144 144
WIRE -320 256 -320 192
WIRE -48 256 -48 192
WIRE -528 352 -528 288
WIRE 144 352 144 288
WIRE -320 384 -320 336
WIRE -176 384 -320 384
WIRE -48 384 -48 336
WIRE -48 384 -176 384
WIRE -176 448 -176 384
FLAG -176 448 0
FLAG 16 -256 0
FLAG -528 352 0
FLAG 144 352 0
SYMBOL npn -384 96 R0
SYMATTR InstName Q1
SYMATTR Value 2N3904
SYMBOL npn 16 96 M0
SYMATTR InstName Q2
SYMATTR Value 2N3904
SYMBOL res -336 -80 R0
SYMATTR InstName R1
SYMATTR Value 1k
SYMBOL res -64 -80 R0
SYMATTR InstName R2
SYMATTR Value 1k
SYMBOL res -336 240 R0
SYMATTR InstName R3
SYMATTR Value 1k
SYMBOL res -64 240 R0
SYMATTR InstName R4
SYMATTR Value 1k
SYMBOL voltage -528 192 R0
WINDOW 123 0 0 Left 0
WINDOW 39 0 0 Left 0
SYMATTR InstName V1
SYMATTR Value SINE(12 0.5 1k)
SYMBOL voltage 144 192 R0
WINDOW 123 0 0 Left 0
WINDOW 39 0 0 Left 0
SYMATTR InstName V2
SYMATTR Value SINE(12 0.7 1k 0 0 180)
SYMBOL voltage -176 -144 R180
WINDOW 0 24 96 Left 2
WINDOW 3 24 16 Left 2
WINDOW 123 0 0 Left 0
WINDOW 39 0 0 Left 0
SYMATTR InstName Vdd
SYMATTR Value 20
TEXT -562 472 Left 2 !.tran 10ms
