Version 4
SHEET 1 1016 680
WIRE -112 128 -160 128
WIRE -112 144 -112 128
WIRE 144 176 144 128
WIRE -624 192 -624 176
WIRE -496 192 -624 192
WIRE -384 192 -496 192
WIRE -624 208 -624 192
WIRE -480 256 -496 256
WIRE -384 256 -480 256
WIRE -96 256 -160 256
WIRE 16 256 -96 256
WIRE -496 288 -496 256
WIRE -496 288 -624 288
WIRE -624 304 -624 288
WIRE 144 304 144 272
WIRE -384 320 -432 320
WIRE -128 320 -160 320
WIRE -432 336 -432 320
WIRE -624 400 -624 368
WIRE 144 416 144 384
WIRE -432 432 -432 400
WIRE -128 480 -128 320
WIRE 16 480 16 448
WIRE 16 480 -128 480
WIRE 112 560 64 560
WIRE 192 560 112 560
WIRE 336 560 336 512
WIRE 336 560 272 560
FLAG -736 176 0
FLAG -736 96 12V
FLAG -112 144 0
FLAG -624 96 12V
FLAG -624 400 0
FLAG -384 128 12V
FLAG -432 432 0
FLAG -480 256 TRIG
FLAG -496 192 DIS
FLAG -160 192 TRIG
FLAG -96 256 Vout
FLAG 144 48 12V
FLAG 144 416 0
FLAG 16 368 12V
FLAG 16 576 0
FLAG 112 480 12V
FLAG 336 640 0
FLAG 336 512 nTS_ACTIVE
SYMBOL Misc\\NE555 -272 224 M0
SYMATTR InstName U1
SYMBOL voltage -736 80 R0
WINDOW 123 0 0 Left 2
WINDOW 39 0 0 Left 2
SYMATTR InstName V1
SYMATTR Value 12
SYMBOL polcap -640 304 R0
SYMATTR InstName C1
SYMATTR Value 15µ
SYMBOL res -640 80 R0
SYMATTR InstName R1
SYMATTR Value 5k
SYMBOL polcap -416 336 M0
SYMATTR InstName C2
SYMATTR Value 10n
SYMBOL res -640 192 R0
SYMATTR InstName R2
SYMATTR Value 10k
SYMBOL res 112 240 R90
WINDOW 0 0 56 VBottom 2
WINDOW 3 32 56 VTop 2
SYMATTR InstName R3
SYMATTR Value 1k
SYMBOL nmos 96 176 R0
SYMATTR InstName M1
SYMBOL res 128 32 R0
SYMATTR InstName R4
SYMATTR Value 1k
SYMBOL nmos 64 480 M0
SYMATTR InstName M2
SYMATTR Value FDR4420A
SYMBOL res 0 352 R0
SYMATTR InstName R5
SYMATTR Value 1k
SYMBOL res 96 464 R0
SYMATTR InstName R6
SYMATTR Value 1k
SYMBOL res 288 544 R90
WINDOW 0 0 56 VBottom 2
WINDOW 3 32 56 VTop 2
SYMATTR InstName R7
SYMATTR Value 100
SYMBOL voltage 336 544 R0
WINDOW 123 0 0 Left 2
WINDOW 39 0 0 Left 2
SYMATTR InstName V2
SYMATTR Value ""
SYMBOL res 128 288 R0
SYMATTR InstName R8
SYMATTR Value 1k
SYMBOL voltage 736 464 R0
WINDOW 123 0 0 Left 2
WINDOW 39 0 0 Left 2
SYMATTR InstName V3
SYMATTR Value PULSE(12 0 0 0 0 1 2)
TEXT -680 504 Left 2 !.tran 0 6 0.999 0.001
