Version 4
SHEET 1 1016 680
WIRE -32 -288 -32 -368
WIRE -272 -224 -272 -272
WIRE -32 -176 -32 -208
WIRE -656 -160 -768 -160
WIRE -448 -96 -624 -96
WIRE -272 -96 -272 -144
WIRE -272 -96 -368 -96
WIRE -80 -96 -272 -96
WIRE -624 -64 -624 -96
WIRE -32 -32 -32 -80
WIRE -928 16 -1072 16
WIRE -768 16 -768 -160
WIRE -768 16 -848 16
WIRE -672 16 -768 16
WIRE -768 64 -768 16
WIRE -1072 80 -1072 16
WIRE -768 192 -768 144
WIRE -624 192 -624 32
WIRE -624 192 -768 192
WIRE -768 240 -768 192
FLAG -336 432 0
FLAG -336 352 12V
FLAG -1072 160 0
FLAG -272 -272 12V
FLAG -768 240 0
FLAG -1072 16 nTS_ACTIVE
FLAG -32 -32 0
FLAG -32 -368 12V
SYMBOL voltage -336 336 R0
WINDOW 123 0 0 Left 2
WINDOW 39 0 0 Left 2
SYMATTR InstName V1
SYMATTR Value 12
SYMBOL voltage -1072 64 R0
WINDOW 123 0 0 Left 2
WINDOW 39 0 0 Left 2
SYMATTR InstName V2
SYMATTR Value PULSE(12 0 0 0 0 1 2)
SYMBOL nmos -672 -64 R0
SYMATTR InstName M3
SYMBOL nmos -80 -176 R0
SYMATTR InstName M4
SYMBOL res -256 -128 R180
WINDOW 0 36 76 Left 2
WINDOW 3 36 40 Left 2
SYMATTR InstName R1
SYMATTR Value 15k
SYMBOL res -352 -112 R90
WINDOW 0 0 56 VBottom 2
WINDOW 3 32 56 VTop 2
SYMATTR InstName R2
SYMATTR Value 100
SYMBOL res -784 48 R0
SYMATTR InstName R8
SYMATTR Value 15k
SYMBOL res -832 0 R90
WINDOW 0 0 56 VBottom 2
WINDOW 3 32 56 VTop 2
SYMATTR InstName R9
SYMATTR Value 1k
SYMBOL res -48 -304 R0
SYMATTR InstName R4
SYMATTR Value 15k
TEXT -680 504 Left 2 !.tran 0 6 0.999 0.001
